Circuit: * C:\Users\Milagros\Documents\GitHub\Potencia\Spice\Circuit.asc

WARNING: Less than two connections to node X1:U2:_DG:VCONST.  This node is used by E:X1:U2:_DG:_CONSTANT.
WARNING: Less than two connections to node X1:U2:_DS:VCONST.  This node is used by E:X1:U2:_DS:_CONSTANT.
WARNING: Less than two connections to node X2:U2:_DG:VCONST.  This node is used by E:X2:U2:_DG:_CONSTANT.
WARNING: Less than two connections to node X2:U2:_DS:VCONST.  This node is used by E:X2:U2:_DS:_CONSTANT.
WARNING: Less than two connections to node X3:U2:_DG:VCONST.  This node is used by E:X3:U2:_DG:_CONSTANT.
WARNING: Less than two connections to node X3:U2:_DS:VCONST.  This node is used by E:X3:U2:_DS:_CONSTANT.
WARNING: Less than two connections to node X4:U2:_DG:VCONST.  This node is used by E:X4:U2:_DG:_CONSTANT.
WARNING: Less than two connections to node X4:U2:_DS:VCONST.  This node is used by E:X4:U2:_DS:_CONSTANT.
Instance "m:x4:u2:111": Length shorter than recommended for a level 1 MOSFET.
Instance "m:x4:u2:111": Width narrower than recommended for a level 1 MOSFET.
Instance "m:x3:u2:111": Length shorter than recommended for a level 1 MOSFET.
Instance "m:x3:u2:111": Width narrower than recommended for a level 1 MOSFET.
Instance "m:x2:u2:111": Length shorter than recommended for a level 1 MOSFET.
Instance "m:x2:u2:111": Width narrower than recommended for a level 1 MOSFET.
Instance "m:x1:u2:111": Length shorter than recommended for a level 1 MOSFET.
Instance "m:x1:u2:111": Width narrower than recommended for a level 1 MOSFET.
Early termination of direct N-R iteration.
Direct Newton iteration failed to find .op point.  (Use ".option noopiter" to skip.)
Starting Gmin stepping
Gmin = 10
Gmin = 1.07374
vernier = 0.5
vernier = 0.25
vernier = 0.125
vernier = 0.0625
Gmin = 0.845778
vernier = 0.03125
vernier = 0.015625
vernier = 0.0078125
vernier = 0.00390625
Gmin = 0.838403
vernier = 0.00195313
vernier = 0.000976563
vernier = 0.000488281
Gmin = 0
Gmin stepping failed

Starting source stepping with srcstepmethod=0
Source Step = 3.0303%
Source Step = 33.3333%
Source Step = 63.6364%
Source Step = 93.9394%
Source stepping succeeded in finding the operating point.

Ignoring empty pin current: Ix(u2:g)
Ignoring empty pin current: Ix(u2:d)
Ignoring empty pin current: Ix(u2:s)
Ignoring empty pin current: Ix(u2:_m:gg1)
Ignoring empty pin current: Ix(u2:_m:dd1)
Ignoring empty pin current: Ix(u2:_m:ss2)
Ignoring empty pin current: Ix(u2:_dg:dp)
Ignoring empty pin current: Ix(u2:_dg:gn)
Ignoring empty pin current: Ix(u2:_ds:ps_d)
Ignoring empty pin current: Ix(u2:_ds:ns_s)
Ignoring empty pin current: Ix(u2:_d:d)
Ignoring empty pin current: Ix(u2:_d:s)
Ignoring empty pin current: Ix(u2:g)
Ignoring empty pin current: Ix(u2:d)
Ignoring empty pin current: Ix(u2:s)
Ignoring empty pin current: Ix(u2:_m:gg1)
Ignoring empty pin current: Ix(u2:_m:dd1)
Ignoring empty pin current: Ix(u2:_m:ss2)
Ignoring empty pin current: Ix(u2:_dg:dp)
Ignoring empty pin current: Ix(u2:_dg:gn)
Ignoring empty pin current: Ix(u2:_ds:ps_d)
Ignoring empty pin current: Ix(u2:_ds:ns_s)
Ignoring empty pin current: Ix(u2:_d:d)
Ignoring empty pin current: Ix(u2:_d:s)

Date: Fri Nov 11 07:17:56 2022
Total elapsed time: 2.585 seconds.

tnom = 27
temp = 27
method = modified trap
totiter = 94126
traniter = 92402
tranpoints = 34555
accept = 24821
rejected = 9734
matrix size = 165
fillins = 699
solver = Normal
Thread vector: 22.3/7.6[4] 2.8/2.2[4] 4.7/3.0[3] 0.4/1.1[1]  2592/500
Matrix Compiler1: 91.01 KB object code size  14.6/8.0/[4.5]
Matrix Compiler2: 23.60 KB object code size  1.6/1.9/[0.7]

