Circuit: * C:\Users\Milagros\Documents\GitHub\Potencia\Spice - copia\CircuitRg10.asc

WARNING: Less than two connections to node X1:U2:_DG:VCONST.  This node is used by E:X1:U2:_DG:_CONSTANT.
WARNING: Less than two connections to node X1:U2:_DS:VCONST.  This node is used by E:X1:U2:_DS:_CONSTANT.
WARNING: Less than two connections to node X2:U2:_DG:VCONST.  This node is used by E:X2:U2:_DG:_CONSTANT.
WARNING: Less than two connections to node X2:U2:_DS:VCONST.  This node is used by E:X2:U2:_DS:_CONSTANT.
WARNING: Less than two connections to node X3:U2:_DG:VCONST.  This node is used by E:X3:U2:_DG:_CONSTANT.
WARNING: Less than two connections to node X3:U2:_DS:VCONST.  This node is used by E:X3:U2:_DS:_CONSTANT.
WARNING: Less than two connections to node X4:U2:_DG:VCONST.  This node is used by E:X4:U2:_DG:_CONSTANT.
WARNING: Less than two connections to node X4:U2:_DS:VCONST.  This node is used by E:X4:U2:_DS:_CONSTANT.
Instance "m:x4:u2:111": Length shorter than recommended for a level 1 MOSFET.
Instance "m:x4:u2:111": Width narrower than recommended for a level 1 MOSFET.
Instance "m:x3:u2:111": Length shorter than recommended for a level 1 MOSFET.
Instance "m:x3:u2:111": Width narrower than recommended for a level 1 MOSFET.
Instance "m:x2:u2:111": Length shorter than recommended for a level 1 MOSFET.
Instance "m:x2:u2:111": Width narrower than recommended for a level 1 MOSFET.
Instance "m:x1:u2:111": Length shorter than recommended for a level 1 MOSFET.
Instance "m:x1:u2:111": Width narrower than recommended for a level 1 MOSFET.
Early termination of direct N-R iteration.
Direct Newton iteration failed to find .op point.  (Use ".option noopiter" to skip.)
Starting Gmin stepping
Increasing initial diagonal Gmin to 100
Gmin = 100
Gmin = 10.7374
vernier = 0.5
vernier = 0.25
vernier = 0.125
vernier = 0.0625
Gmin = 11.3489
vernier = 0.03125
vernier = 0.015625
vernier = 0.0078125
vernier = 0.00390625
vernier = 0.00195313
vernier = 0.000976563
vernier = 0.000488281
Gmin = 0
Gmin stepping succeeded in finding the operating point.

Ignoring empty pin current: Ix(u2:g)
Ignoring empty pin current: Ix(u2:d)
Ignoring empty pin current: Ix(u2:s)
Ignoring empty pin current: Ix(u2:_m:gg1)
Ignoring empty pin current: Ix(u2:_m:dd1)
Ignoring empty pin current: Ix(u2:_m:ss2)
Ignoring empty pin current: Ix(u2:_dg:dp)
Ignoring empty pin current: Ix(u2:_dg:gn)
Ignoring empty pin current: Ix(u2:_ds:ps_d)
Ignoring empty pin current: Ix(u2:_ds:ns_s)
Ignoring empty pin current: Ix(u2:_d:d)
Ignoring empty pin current: Ix(u2:_d:s)
Ignoring empty pin current: Ix(u2:g)
Ignoring empty pin current: Ix(u2:d)
Ignoring empty pin current: Ix(u2:s)
Ignoring empty pin current: Ix(u2:_m:gg1)
Ignoring empty pin current: Ix(u2:_m:dd1)
Ignoring empty pin current: Ix(u2:_m:ss2)
Ignoring empty pin current: Ix(u2:_dg:dp)
Ignoring empty pin current: Ix(u2:_dg:gn)
Ignoring empty pin current: Ix(u2:_ds:ps_d)
Ignoring empty pin current: Ix(u2:_ds:ns_s)
Ignoring empty pin current: Ix(u2:_d:d)
Ignoring empty pin current: Ix(u2:_d:s)
Heightened Def Con from 4.74376e-012 to 1.1e-009

Date: Fri Nov 11 05:26:05 2022
Total elapsed time: 4.078 seconds.

tnom = 27
temp = 27
method = modified trap
totiter = 76530
traniter = 75106
tranpoints = 28387
accept = 20223
rejected = 8165
matrix size = 165
fillins = 577
solver = Normal
Thread vector: 26.6/20.4[4] 7.1/4.9[4] 16.2/6.1[4] 0.7/1.9[1]  2592/500
Matrix Compiler1: 63.77 KB object code size  38.4/28.2/[8.4]
Matrix Compiler2: 21.51 KB object code size  3.4/3.2/[0.9]

