Circuit: * C:\Users\Milagros\Documents\GitHub\Potencia\Spice\Circuit.asc

WARNING: Less than two connections to node X1:U2:_DG:VCONST.  This node is used by E:X1:U2:_DG:_CONSTANT.
WARNING: Less than two connections to node X1:U2:_DS:VCONST.  This node is used by E:X1:U2:_DS:_CONSTANT.
WARNING: Less than two connections to node X2:U2:_DG:VCONST.  This node is used by E:X2:U2:_DG:_CONSTANT.
WARNING: Less than two connections to node X2:U2:_DS:VCONST.  This node is used by E:X2:U2:_DS:_CONSTANT.
WARNING: Less than two connections to node X3:U2:_DG:VCONST.  This node is used by E:X3:U2:_DG:_CONSTANT.
WARNING: Less than two connections to node X3:U2:_DS:VCONST.  This node is used by E:X3:U2:_DS:_CONSTANT.
WARNING: Less than two connections to node X4:U2:_DG:VCONST.  This node is used by E:X4:U2:_DG:_CONSTANT.
WARNING: Less than two connections to node X4:U2:_DS:VCONST.  This node is used by E:X4:U2:_DS:_CONSTANT.
Instance "m:x4:u2:111": Length shorter than recommended for a level 1 MOSFET.
Instance "m:x4:u2:111": Width narrower than recommended for a level 1 MOSFET.
Instance "m:x3:u2:111": Length shorter than recommended for a level 1 MOSFET.
Instance "m:x3:u2:111": Width narrower than recommended for a level 1 MOSFET.
Instance "m:x2:u2:111": Length shorter than recommended for a level 1 MOSFET.
Instance "m:x2:u2:111": Width narrower than recommended for a level 1 MOSFET.
Instance "m:x1:u2:111": Length shorter than recommended for a level 1 MOSFET.
Instance "m:x1:u2:111": Width narrower than recommended for a level 1 MOSFET.
Early termination of direct N-R iteration.
Direct Newton iteration failed to find .op point.  (Use ".option noopiter" to skip.)
Starting Gmin stepping
Increasing initial diagonal Gmin to 100
Gmin = 100
Gmin = 10.7374
vernier = 0.5
vernier = 0.25
vernier = 0.125
vernier = 0.0625
Gmin = 11.3489
vernier = 0.03125
vernier = 0.015625
vernier = 0.0078125
vernier = 0.00390625
vernier = 0.00195313
vernier = 0.000976563
vernier = 0.000488281
Gmin = 0
Gmin stepping succeeded in finding the operating point.

Ignoring empty pin current: Ix(u2:g)
Ignoring empty pin current: Ix(u2:d)
Ignoring empty pin current: Ix(u2:s)
Ignoring empty pin current: Ix(u2:_m:gg1)
Ignoring empty pin current: Ix(u2:_m:dd1)
Ignoring empty pin current: Ix(u2:_m:ss2)
Ignoring empty pin current: Ix(u2:_dg:dp)
Ignoring empty pin current: Ix(u2:_dg:gn)
Ignoring empty pin current: Ix(u2:_ds:ps_d)
Ignoring empty pin current: Ix(u2:_ds:ns_s)
Ignoring empty pin current: Ix(u2:_d:d)
Ignoring empty pin current: Ix(u2:_d:s)
Ignoring empty pin current: Ix(u2:g)
Ignoring empty pin current: Ix(u2:d)
Ignoring empty pin current: Ix(u2:s)
Ignoring empty pin current: Ix(u2:_m:gg1)
Ignoring empty pin current: Ix(u2:_m:dd1)
Ignoring empty pin current: Ix(u2:_m:ss2)
Ignoring empty pin current: Ix(u2:_dg:dp)
Ignoring empty pin current: Ix(u2:_dg:gn)
Ignoring empty pin current: Ix(u2:_ds:ps_d)
Ignoring empty pin current: Ix(u2:_ds:ns_s)
Ignoring empty pin current: Ix(u2:_d:d)
Ignoring empty pin current: Ix(u2:_d:s)
Heightened Def Con from 4.6875e-012 to 1.1e-009

Date: Thu Nov 10 14:49:40 2022
Total elapsed time: 1.789 seconds.

tnom = 27
temp = 27
method = modified trap
totiter = 76459
traniter = 75035
tranpoints = 28337
accept = 20293
rejected = 8045
matrix size = 165
fillins = 577
solver = Normal
Thread vector: 20.2/8.5[4] 2.9/2.0[4] 5.0/2.5[4] 0.4/1.1[1]  2592/500
Matrix Compiler1: 63.77 KB object code size  17.2/5.8/[2.6]
Matrix Compiler2: 21.51 KB object code size  1.5/1.6/[0.6]

